[Format]      =  4.0
[Frequency]   =  0
[Precision]   =  1e-008
[MinAngle]    =  30
[DoSmartMesh] =  1
[Depth]       =  20
[LengthUnits] =  millimeters
[ProblemType] =  planar
[Coordinates] =  cartesian
[ACSolver]    =  0
[PrevType]    =  0
[PrevSoln]    =  ""
[Comment]     =  "Add comments here."
[PointProps]   = 0
[BdryProps]   = 1
  <BeginBdry>
    <BdryName> = "BoundaryCondition"
    <BdryType> = 0
    <A_0> = 0
    <A_1> = 0
    <A_2> = 0
    <Phi> = 0
    <c0> = 0
    <c0i> = 0
    <c1> = 0
    <c1i> = 0
    <Mu_ssd> = 0
    <Sigma_ssd> = 0
    <innerangle> = 0
    <outerangle> = 0
  <EndBdry>
[BlockProps]  = 3
  <BeginBlock>
    <BlockName> = "Air"
    <Mu_x> = 1
    <Mu_y> = 1
    <H_c> = 0
    <H_cAngle> = 0
    <J_re> = 0
    <J_im> = 0
    <Sigma> = 0
    <d_lam> = 0
    <Phi_h> = 0
    <Phi_hx> = 0
    <Phi_hy> = 0
    <LamType> = 0
    <LamFill> = 1
    <NStrands> = 0
    <WireD> = 0
    <BHPoints> = 0
  <EndBlock>
  <BeginBlock>
    <BlockName> = "M-50-Linear"
    <Mu_x> = 2250
    <Mu_y> = 2250
    <H_c> = 0
    <H_cAngle> = 0
    <J_re> = 0
    <J_im> = 0
    <Sigma> = 5.5099999999999998
    <d_lam> = 0
    <Phi_h> = 0
    <Phi_hx> = 0
    <Phi_hy> = 0
    <LamType> = 0
    <LamFill> = 1
    <NStrands> = 0
    <WireD> = 0
    <BHPoints> = 0
  <EndBlock>
  <BeginBlock>
    <BlockName> = "18 AWG"
    <Mu_x> = 1
    <Mu_y> = 1
    <H_c> = 0
    <H_cAngle> = 0
    <J_re> = 0
    <J_im> = 0
    <Sigma> = 58
    <d_lam> = 0
    <Phi_h> = 0
    <Phi_hx> = 0
    <Phi_hy> = 0
    <LamType> = 3
    <LamFill> = 1
    <NStrands> = 1
    <WireD> = 1.0239652968433499
    <BHPoints> = 0
  <EndBlock>
[CircuitProps]  = 1
  <BeginCircuit>
    <CircuitName> = "Coil Circuit"
    <TotalAmps_re> = 3
    <TotalAmps_im> = 0
    <CircuitType> = 1
  <EndCircuit>
[NumPoints] = 33
0	0	0	0
60	0	0	0
0	70	0	0
60	70	0	0
15	55	0	0
15	15	0	0
45	15	0	0
60	25	0	0
45	55	0	0
45	25	0	0
45	45	0	0
60	45	0	0
59.571067811865476	42.071067811865476	0	0
45.428932188134524	27.928932188134524	0	0
53.820519790846781	23.072878491355006	0	0
40.572878491355013	36.320519790846781	0	0
51.179480209153219	46.927121508644994	0	0
64.427121508644987	33.679480209153219	0	0
51.873770874568322	25.019627407633468	0	0
62.480372592366535	35.626229125431678	0	0
42.519627407633472	34.373770874568322	0	0
53.126229125431685	44.980372592366528	0	0
0	20	0	0
0	50	0	0
-10	20	0	0
-10	50	0	0
15	20	0	0
15	50	0	0
25	50	0	0
25	20	0	0
-70	35	0	0
130	35	0	0
-64.799999999999997	36.299999999999997	0	0
[NumSegments] = 24
2	3	-1	0	0	0
4	8	-1	0	0	0
4	27	-1	0	0	0
5	6	-1	0	0	0
7	1	-1	0	0	0
1	0	-1	0	0	0
2	23	-1	0	0	0
9	6	-1	0	0	0
8	10	-1	0	0	0
3	11	-1	0	0	0
15	20	-1	0	0	0
16	21	-1	0	0	0
18	14	-1	0	0	0
19	17	-1	0	0	0
22	0	-1	0	0	0
23	22	-1	0	0	0
25	23	-1	0	0	0
25	24	-1	0	0	0
22	24	-1	0	0	0
26	5	-1	0	0	0
27	26	-1	0	0	0
28	27	-1	0	0	0
28	29	-1	0	0	0
29	26	-1	0	0	0
[NumArcSegments] = 10
11	10	73.73979529168804	1	0	0	0	1
9	7	73.73979529168804	1	0	0	0	1
14	17	77.364374906978867	1	0	0	0	1
16	15	77.364374906978867	1	0	0	0	1
13	18	41.409622109270863	1	0	0	0	1
19	12	41.409622109270856	1	0	0	0	1
12	21	41.409622109270849	1	0	0	0	1
20	13	41.409622109270849	1	0	0	0	1
30	31	180	1	1	0	0	1
31	30	180	1	1	0	0	1
[NumHoles] = 0
[NumBlockLabels] = 5
19.5	36.100000000000001	3	-1	1	0	0	250	0
-5.5	36.299999999999997	3	-1	1	0	0	-250	0
79.200000000000003	36.899999999999999	1	-1	0	0	0	1	0
27.199999999999999	62.5	2	-1	0	0	0	1	0
51.934314575050763	35	2	-1	0	0	0	1	0
