[Format]      =  4.0
[Frequency]   =  0
[Precision]   =  1e-008
[MinAngle]    =  30
[DoSmartMesh] =  1
[Depth]       =  20
[LengthUnits] =  millimeters
[ProblemType] =  planar
[Coordinates] =  cartesian
[ACSolver]    =  0
[PrevType]    =  0
[PrevSoln]    =  ""
[Comment]     =  "Add comments here."
[PointProps]   = 0
[BdryProps]   = 0
[BlockProps]  = 0
[CircuitProps]  = 0
[NumPoints] = 22
0	0	0	0
60	0	0	0
0	70	0	0
60	70	0	0
15	55	0	0
15	15	0	0
45	15	0	0
60	25	0	0
45	55	0	0
45	25	0	0
45	45	0	0
60	45	0	0
62.5	35	0	0
42.5	35	0	0
45	25.632503002402402	0	0
45	44.367496997597598	0	0
60	44.367496997597598	0	0
60	25.632503002402402	0	0
45	28.385621722338524	0	0
60	28.385621722338524	0	0
45	41.614378277661473	0	0
60	41.614378277661473	0	0
[NumSegments] = 14
2	3	-1	0	0	0
4	8	-1	0	0	0
4	5	-1	0	0	0
5	6	-1	0	0	0
7	1	-1	0	0	0
1	0	-1	0	0	0
2	0	-1	0	0	0
9	6	-1	0	0	0
8	10	-1	0	0	0
3	11	-1	0	0	0
15	20	-1	0	0	0
16	21	-1	0	0	0
18	14	-1	0	0	0
19	17	-1	0	0	0
[NumArcSegments] = 8
11	10	73.73979529168804	1	0	0	0	1
9	7	73.73979529168804	1	0	0	0	1
14	17	77.364374906978867	1	0	0	0	1
16	15	77.364374906978867	1	0	0	0	1
13	18	41.409622109270863	1	0	0	0	1
19	12	41.409622109270856	1	0	0	0	1
12	21	41.409622109270849	1	0	0	0	1
20	13	41.409622109270849	1	0	0	0	1
[NumHoles] = 0
[NumBlockLabels] = 0
